; Filename: C:\Users\naeim\OneDrive\Desktop\REWET\rewet\examples\Net3\Net3.inp
; WNTR: 1.1.0.1.2
; Created: 2024-08-17 21:34:27
[TITLE]
EPANET Example Network 3
Example showing how the percent of Lake water in a dual-source
system changes over time.

[JUNCTIONS]
;ID                      Elevation       Demand Pattern                 
 10                               147               0 1                          ;
 15                                32               1 3                          ;
 20                               129               0 1                          ;
 35                              12.5               1 4                          ;
 40                             131.9               0 1                          ;
 50                             116.5               0 1                          ;
 60                                 0               0 1                          ;
 601                                0               0 1                          ;
 61                                 0               0 1                          ;
 101                               42          189.95 1                          ;
 103                               43           133.2 1                          ;
 105                             28.5          135.37 1                          ;
 107                               22           54.64 1                          ;
 109                             20.3           231.4 1                          ;
 111                               10          141.94 1                          ;
 113                                2           20.01 1                          ;
 115                               14            52.1 1                          ;
 117                             13.6          117.71 1                          ;
 119                                2          176.13 1                          ;
 120                                0               0 1                          ;
 121                               -2           41.63 1                          ;
 123                               11               1 2                          ;
 125                               11            45.6 1                          ;
 127                               56           17.66 1                          ;
 129                               51               0 1                          ;
 131                                6           42.75 1                          ;
 139                               31            5.89 1                          ;
 141                                4            9.85 1                          ;
 143                             -4.5             6.2 1                          ;
 145                                1           27.63 1                          ;
 147                             18.5            8.55 1                          ;
 149                               16           27.07 1                          ;
 151                             33.5          144.48 1                          ;
 153                             66.2           44.17 1                          ;
 157                             13.1           51.79 1                          ;
 159                                6           41.32 1                          ;
 161                                4            15.8 1                          ;
 163                                5            9.42 1                          ;
 164                                5               0 1                          ;
 166                               -2             2.6 1                          ;
 167                               -5           14.56 1                          ;
 169                               -5               0 1                          ;
 171                               -4           39.34 1                          ;
 173                               -4               0 1                          ;
 177                                8           58.17 1                          ;
 179                                8               0 1                          ;
 181                                8               0 1                          ;
 183                               11               0 1                          ;
 184                               16               0 1                          ;
 185                               16           25.65 1                          ;
 187                             12.5               0 1                          ;
 189                                4          107.92 1                          ;
 191                               25            81.9 1                          ;
 193                               18           71.31 1                          ;
 195                             15.5               0 1                          ;
 197                               23           17.04 1                          ;
 199                               -2          119.32 1                          ;
 201                              0.1           44.61 1                          ;
 203                                2               1 5                          ;
 204                               21               0 1                          ;
 205                               21           65.36 1                          ;
 206                                1               0 1                          ;
 207                                9           69.39 1                          ;
 208                               16               0 1                          ;
 209                               -2            0.87 1                          ;
 211                                7            8.67 1                          ;
 213                                7           13.94 1                          ;
 215                                7           92.19 1                          ;
 217                                6           24.22 1                          ;
 219                                4           41.32 1                          ;
 225                                8            22.8 1                          ;
 229                             10.5           64.18 1                          ;
 231                                5           16.48 1                          ;
 237                               14           15.61 1                          ;
 239                               13           44.61 1                          ;
 241                               13               0 1                          ;
 243                               14            4.34 1                          ;
 247                               18           70.38 1                          ;
 249                               18               0 1                          ;
 251                               30           24.16 1                          ;
 253                               36           54.52 1                          ;
 255                               27           40.39 1                          ;
 257                               17               0 1                          ;
 259                               25               0 1                          ;
 261                                0               0 1                          ;
 263                                0               0 1                          ;
 265                                0               0 1                          ;
 267                               21               0 1                          ;
 269                                0               0 1                          ;
 271                                6               0 1                          ;
 273                                8               0 1                          ;
 275                               10               0 1                          ;
 131_breakA_1                      47               0 1                          ;
 131_breakB_1                      47               0 1                          ;
 131_leak_2                      42.5               0 1                          ;
 147_breakA_1                   26.95               0 1                          ;
 147_breakB_1                   26.95               0 1                          ;
 153_breakA_1                    1.45               0 1                          ;
 153_breakB_1                    1.45               0 1                          ;
 177_leak_1                         5               0 1                          ;
 204_leak_1                      20.5               0 1                          ;
 204_breakA_2                      20               0 1                          ;
 204_breakB_2                      20               0 1                          ;
 204_breakA_3                    19.6               0 1                          ;
 204_breakB_3                    19.6               0 1                          ;
 204_leak_4                        18               0 1                          ;
 lk_aux_109              91.056946729               0 1                          ;
 lk_aux_121              75.462353037               0 1                          ;
 lk_aux_149              91.717110299               0 1                          ;
 lk_aux_199              70.498610705               0 1                          ;
 1_tank_mid                     131.9               0 1                          ;

[RESERVOIRS]
;ID                                   Head                  Pattern
 River                            220                            ;
 Lake                             167                            ;
 131_breakA_1_nn                   47                            ;
 131_breakB_1_nn                   47                            ;
 131_leak_2_nn                   42.5                            ;
 147_breakA_1_nn                26.95                            ;
 147_breakB_1_nn                26.95                            ;
 153_breakA_1_nn                 1.45                            ;
 153_breakB_1_nn                 1.45                            ;
 177_leak_1_nn                      5                            ;
 204_leak_1_nn                   20.5                            ;
 204_breakA_2_nn                   20                            ;
 204_breakB_2_nn                   20                            ;
 204_breakA_3_nn                 19.6                            ;
 204_breakB_3_nn                 19.6                            ;
 204_leak_4_nn                     18                            ;

[TANKS]
;ID                              Elevation           Init Level            Min Level            Max Level             Diameter           Min Volume Volume Curve         Overflow            
 1                              131.9    15.092200316             0.1            32.1              85               0                                             ;
 2                              116.5    21.212598786             6.5            40.3              50               0                                             ;
 3                                129    30.985537291               4            35.5             164               0                                             ;

[PIPES]
;ID                   Node1                Node2                              Length             Diameter            Roughness           Minor Loss               Status
 20                   3                    20                                99              99             199               0                 Open   ;
 40                   1_tank_mid           40                                99              99             199               0                 Open   ;
 50                   2                    50                                99              99             199               0                 Open   ;
 60                   River                60                              1231              24             140               0                 Open   ;
 101                  10                   101                            14200              18             110               0                 Open   ;
 103                  101                  103                             1350              16             130               0                 Open   ;
 105                  101                  105                             2540              12             130               0                 Open   ;
 107                  105                  107                             1470              12             130               0                 Open   ;
 109                  103                  109                             3940              16             130               0                 Open   ;
 111                  109                  111                             2000              12             130               0                 Open   ;
 112                  115                  111                             1160              12             130               0                 Open   ;
 113                  111                  113                             1680              12             130               0                 Open   ;
 114                  115                  113                             2000               8             130               0                 Open   ;
 115                  107                  115                             1950               8             130               0                 Open   ;
 116                  113                  193                             1660              12             130               0                 Open   ;
 117                  263                  105                             2725              12             130               0                 Open   ;
 119                  115                  117                             2180              12             130               0                 Open   ;
 120                  119                  120                              730              12             130               0                 Open   ;
 121                  120                  117                             1870              12             130               0                 Open   ;
 122                  121                  120                             2050               8             130               0                 Open   ;
 123                  121                  119                             2000              30             141               0                 Open   ;
 125                  123                  121                             1500              30             141               0                 Open   ;
 129                  121                  125                              930              24             130               0                 Open   ;
 131                  125                  131_leak_2                      2268              24             130               0                 Open   ;
 133                  20                   127                              785              20             130               0                 Open   ;
 135                  127                  129                              900              24             130               0                 Open   ;
 137                  129                  131                             6480              16             130               0                 Open   ;
 145                  129                  139                             2750               8             130               0                 Open   ;
 147                  139                  147_breakA_1                   307.5               8             130               0                 Open   ;
 149                  143                  141                             1400               8             130               0                 Open   ;
 151                  15                   143                             1650               8             130               0                 Open   ;
 153                  145                  153_breakA_1                   526.5              12             130               0                 Open   ;
 155                  147                  145                             2200              12             130               0                 Open   ;
 159                  147                  149                              880              12             130               0                 Open   ;
 161                  149                  151                             1020               8             130               0                 Open   ;
 163                  151                  153                             1170              12             130               0                 Open   ;
 169                  125                  153                             4560               8             130               0                 Open   ;
 171                  119                  151                             3460              12             130               0                 Open   ;
 173                  119                  157                             2080              30             141               0                 Open   ;
 175                  157                  159                             2910              30             141               0                 Open   ;
 177                  159                  177_leak_1                      1000              30             141               0                 Open   ;
 179                  161                  163                              430              30             141               0                 Open   ;
 180                  163                  164                              150              14             130               0                 Open   ;
 181                  164                  166                              490              14             130               0                 Open   ;
 183                  265                  169                              590              30             141               0                 Open   ;
 185                  167                  169                               60               8             130               0                 Open   ;
 186                  187                  204                             99.9               8             130               0                 Open   ;
 187                  169                  171                             1270              30             141               0                 Open   ;
 189                  171                  173                               50              30             141               0                 Open   ;
 191                  271                  171                              760              24             130               0                 Open   ;
 193                  35                   181                               30              24             130               0                 Open   ;
 195                  181                  177                               30              12             130               0                 Open   ;
 197                  177                  179                               30              12             130               0                 Open   ;
 199                  179                  183                              210              12             130               0                 Open   ;
 201                  40                   179                             1190              12             130               0                 Open   ;
 202                  185                  184                             99.9               8             130               0                 Open   ;
 203                  183                  185                              510               8             130               0                 Open   ;
 204                  184                  204_leak_4                      1812              12             130               0                 Open   ;
 205                  204                  185                             1325              12             130               0                 Open   ;
 207                  189                  183                             1350              12             130               0                 Open   ;
 209                  189                  187                              500               8             130               0                 Open   ;
 211                  169                  269                              646              12             130               0                 Open   ;
 213                  191                  187                             2560              12             130               0                 Open   ;
 215                  267                  189                             1230              12             130               0                 Open   ;
 217                  191                  193                              520              12             130               0                 Open   ;
 219                  193                  195                              360              12             130               0                 Open   ;
 221                  161                  195                             2300               8             130               0                 Open   ;
 223                  197                  191                             1150              12             130               0                 Open   ;
 225                  111                  197                             2790              12             130               0                 Open   ;
 229                  173                  199                             4000              24             141               0                 Open   ;
 231                  199                  201                              630              24             141               0                 Open   ;
 233                  201                  203                              120              24             130               0                 Open   ;
 235                  199                  273                              725              12             130               0                 Open   ;
 237                  205                  207                             1200              12             130               0                 Open   ;
 238                  207                  206                              450              12             130               0                 Open   ;
 239                  275                  207                             1430              12             130               0                 Open   ;
 240                  206                  208                              510              12             130               0                 Open   ;
 241                  208                  209                              885              12             130               0                 Open   ;
 243                  209                  211                             1210              16             130               0                 Open   ;
 245                  211                  213                              990              16             130               0                 Open   ;
 247                  213                  215                             4285              16             130               0                 Open   ;
 249                  215                  217                             1660              16             130               0                 Open   ;
 251                  217                  219                             2050              14             130               0                 Open   ;
 257                  217                  225                             1560              12             130               0                 Open   ;
 261                  213                  229                             2200               8             130               0                 Open   ;
 263                  229                  231                             1960              12             130               0                 Open   ;
 269                  211                  237                             2080              12             130               0                 Open   ;
 271                  237                  229                              790               8             130               0                 Open   ;
 273                  237                  239                              510              12             130               0                 Open   ;
 275                  239                  241                               35              12             130               0                 Open   ;
 277                  241                  243                             2200              12             130               0                 Open   ;
 281                  241                  247                              445              10             130               0                 Open   ;
 283                  239                  249                              430              12             130               0                 Open   ;
 285                  247                  249                               10              12             130               0                 Open   ;
 287                  247                  255                             1390              10             130               0                 Open   ;
 289                  50                   255                              925              10             130               0                 Open   ;
 291                  255                  253                             1100              10             130               0                 Open   ;
 293                  255                  251                             1100               8             130               0                 Open   ;
 295                  249                  251                             1450              12             130               0                 Open   ;
 297                  120                  257                              645               8             130               0                 Open   ;
 299                  257                  259                              350               8             130               0                 Open   ;
 301                  259                  263                             1400               8             130               0                 Open   ;
 303                  257                  261                             1400               8             130               0                 Open   ;
 305                  117                  261                              645              12             130               0                 Open   ;
 307                  261                  263                              350              12             130               0                 Open   ;
 309                  265                  267                             1580               8             130               0                 Open   ;
 311                  193                  267                             1170              12             130               0                 Open   ;
 313                  269                  189                              646              12             130               0                 Open   ;
 315                  181                  271                              260              24             130               0                 Open   ;
 317                  273                  275                             2230               8             130               0                 Open   ;
 319                  273                  205                              645              12             130               0                 Open   ;
 321                  163                  265                             1200              30             141               0                 Open   ;
 323                  201                  275                              300              12             130               0                 Open   ;
 325                  269                  271                             1290               8             130               0                 Open   ;
 329                  61                   123                            45500              30             140               0                 Open   ;
 330                  60                   601                                1              30             140               0               Closed   ;
 333                  601                  61                                 1              30             140               0                 Open   ;
 131_Break_1          131_breakB_1         127                              648              24             130               0                 Open   ;
 131_leak_B_2         131_leak_2           131_breakA_1                     324              24             130               0                 Open   ;
 147_Break_1          147_breakB_1         141                           1742.5               8             130               0                 Open   ;